99
Coordinates from ORCA-job OTBS.left_S_isopropil.gauche1
  Si  5.28482199680705     -0.68411216928504     -1.10506670302587
  O   3.78171705807888      0.05177167811259     -1.26598700010889
  O   -0.84775924349458     -1.81505615926178     -2.84595329388044
  O   -1.12095954541556     -3.12313804076566     -1.10493191270356
  N   0.27097985775115      0.85998729896469     -0.39133319541583
  N   -1.20607877795857     -2.02831567296266     -1.67704976116162
  C   -0.57196347176711     -0.19034605720636      0.04050853335435
  H   0.03750431878365     -1.02000014208343      0.41917317492266
  C   -1.67582179807344     -0.86018814560967     -0.89751327468744
  H   -2.09358137825111     -0.14440818736531     -1.61284813163054
  C   -2.50032830211189     -1.08959689977817      0.37140815611698
  H   -2.17379230541898     -2.04416510990020      0.80630963709494
  C   -1.71836237663123      0.08259346892383      1.04057104441226
  H   -2.20393557536535      1.03242969130462      0.76439945720078
  C   1.46491624753697      0.53842374392396     -1.18746000574237
  H   1.31584760842159     -0.38127888995713     -1.77028342728950
  C   1.62097563973539      1.73123300179922     -2.14861043725712
  H   1.17803013344209      1.46352607090880     -3.11863031278992
  H   2.67391405132684      1.97836165686606     -2.32326481515509
  C   0.82142055182295      2.86688583139727     -1.49525419488750
  H   0.46567061421147      3.61002223733827     -2.22056087899967
  H   1.42965208626460      3.38601165509141     -0.74264687281445
  C   -0.33016831566490      2.12537827009933     -0.81854345241962
  H   -0.73768240423145      2.67340459961246      0.04408624936623
  H   -1.16118554581123      1.96032807434578     -1.53658376339644
  C   2.74867806524410      0.28538426335348     -0.30239072853501
  C   5.16627278040122     -2.55038177770965     -1.26791115799565
  H   6.17333663425744     -2.97622844543404     -1.39919127682889
  H   4.71672056124815     -3.01166704810259     -0.37858487803864
  H   4.56297283962921     -2.83763806928001     -2.14111334005691
  C   6.23121645276988      0.02300005731361     -2.56301435163513
  H   7.23685178531595     -0.41802142316319     -2.63142184525466
  H   6.34663290135861      1.11315152929107     -2.47469470290496
  H   5.70522712165631     -0.18459309019653     -3.50609001627927
  C   6.15147205746332     -0.26329957787646      0.50865917297890
  H   5.64607624201707     -0.72459860646397      1.36765702692349
  H   6.20360750417297      0.81930744011240      0.68572254612379
  H   7.18054942829675     -0.65443046621451      0.47727957466519
  C   3.02622116404180      1.55117376355212      0.49726192606694
  C   2.21396388799381      1.90448460632829      1.58800713590844
  H   1.44258459284718      1.21602868874529      1.92560860415289
  C   2.37607798368724      3.13072555139667      2.23327871473412
  H   1.73332146749020      3.38386391999683      3.07794778161052
  C   3.35387924482259      4.03095292055018      1.80070569780696
  H   3.47997292207883      4.99061068538811      2.30379151751112
  C   4.16945844985597      3.68825002540494      0.72072442000603
  H   4.93658820868559      4.38133447833545      0.37202177495479
  C   4.00334776200788      2.46016793380229      0.07573055022538
  H   4.62439592347795      2.20762392224296     -0.78199027494245
  C   2.58726817523677     -0.97786788752280      0.55631011342061
  C   2.09641804589392     -2.15487856699021     -0.03370319466368
  H   1.80670137830968     -2.15987161049868     -1.08443948139841
  C   1.98064014701314     -3.33632228280892      0.69629845961643
  H   1.57167534882054     -4.22452299317635      0.21466683584456
  C   2.38251694161843     -3.37526730180905      2.03439276468915
  H   2.29016239315143     -4.29709568581518      2.60990071473708
  C   2.90440513784383     -2.22397313301852      2.62525860234283
  H   3.23245809207495     -2.24201417398462      3.66557738421562
  C   3.00171041615374     -1.03750174338942      1.89298082641444
  H   3.40895807906645     -0.14724297232751      2.36978029923206
  C   -4.02081712058605     -1.11721551397065      0.26888101663071
  C   -4.65971801761333      0.21495382343843     -0.10664645951900
  H   -5.74280103393904      0.09104902972786     -0.24076860353186
  H   -4.49678640460824      0.95432032043838      0.68890534237234
  H   -4.24632161442189      0.61017490450379     -1.04660747051816
  C   -1.40361688540556      0.10488262776155      2.53824039977739
  H   -0.60027331592248      0.85416858359442      2.66548501903074
  C   -2.62161211204337      0.58013775050853      3.33908277516132
  H   -2.93213864092805      1.58952214368798      3.02849751370037
  H   -2.40029898368194      0.61208350367784      4.41589927922117
  H   -3.47208444502226     -0.09805984237606      3.17886931449259
  C   -0.88304298080127     -1.23589835437423      3.06305166865617
  H   -0.02915126257405     -1.61098788762301      2.48156212408497
  H   -1.67322712122100     -2.00085954047068      3.04171417824207
  H   -0.54953878984632     -1.13575582657492      4.10559899822591
  H   -4.27223297526490     -1.86534226391810     -0.50674059145477
  O   -4.52500163602560     -1.55590469152733      1.53384985156215
  Si  -5.75080850077018     -2.66283096290630      1.80150106275824
  C   -5.15311978575210     -3.72403254093452      3.26334492862337
  C   -6.02880976197242     -3.71157194185923      0.26417426608828
  H   -6.41508320179931     -3.11264346370224     -0.57371412503190
  H   -5.10706904045978     -4.20865256289984     -0.07022408900804
  H   -6.77369600851849     -4.49410226511992      0.47235758784387
  C   -7.32952686541105     -1.73681681129994      2.23149313202442
  H   -8.14827419924733     -2.42530561467445      2.48770705328723
  H   -7.17275651934190     -1.06211817456432      3.08520635150476
  H   -7.66333404840427     -1.12487803533006      1.38046046442670
  C   -3.88346543910734     -4.48595043808000      2.84399483388984
  H   -3.09136558731797     -3.79928295735199      2.51117117632681
  H   -3.48674736730514     -5.06584834008780      3.69509139597477
  H   -4.08007977045716     -5.19394849028113      2.02537022412495
  C   -6.24703222692474     -4.72782051350796      3.66828076221503
  H   -5.89761468871649     -5.35299235048308      4.50799154298135
  H   -7.16684723598655     -4.22149133430270      3.99722195435090
  H   -6.51037658683395     -5.40697777867821      2.84313573251130
  C   -4.82562729765865     -2.81334598383016      4.46030344559109
  H   -4.04468031910557     -2.08144794289409      4.21054806773860
  H   -5.71005968777609     -2.25901621806046      4.80895464334497
  H   -4.45977653121821     -3.41778101019965      5.30852052754922
