99
Coordinates from ORCA-job OTBS.right_S_isopropil.anti
  Si  4.96564790811498     -0.11209889318277     -1.71977732146412
  O   3.32502851015526      0.22223731091865     -1.56952946999347
  O   -0.29760774774211     -3.19088941277861     -1.83605446040806
  O   -0.33119844383366     -3.99828031704570      0.20257071980101
  N   0.03022137985420      0.27145498024448      0.12530650062803
  N   -0.62231263974845     -3.13959415748709     -0.63857304745297
  C   -0.41804793473327     -0.95681529093413      0.70131026628152
  H   0.44292280232323     -1.53363497579377      1.06206845658501
  C   -1.32548932279868     -1.92403150725025     -0.17482334268844
  H   -1.74555242076998     -1.44817102269562     -1.06347897860107
  C   -2.29413732325925     -2.05420103778305      1.01123655442984
  H   -2.20117231787758     -3.03984551957317      1.48911401529362
  C   -1.52526475006754     -0.94081978077079      1.78971394836402
  H   -2.08658416373495      0.00752286650971      1.79012272685630
  C   1.05006833497586      0.15671992259332     -0.93568516460471
  H   1.06322450723861     -0.86120539438581     -1.35096666479489
  C   0.61298016055744      1.14762605082624     -2.02818455196239
  H   0.05829451499120      0.59986453763551     -2.80395023847268
  H   1.47172588827557      1.62614098034130     -2.51258817464651
  C   -0.31487909315977      2.13285027411257     -1.30572871843186
  H   -1.04138972499507      2.60781707691955     -1.97785420114663
  H   0.26647084309665      2.92519893147981     -0.81693106939838
  C   -0.99622606393433      1.25196929511410     -0.25981645990713
  H   -1.33901016487374      1.82173795833443      0.61642859178073
  H   -1.88510379643472      0.75560854602704     -0.70388760400272
  C   2.51201753097295      0.41612357462661     -0.40806741607847
  C   5.25999938251632     -1.96092381530377     -1.85615849765116
  H   6.29351410159643     -2.15442942875930     -2.18298088810267
  H   5.10753728726056     -2.47024937567247     -0.89536110400156
  H   4.58320016217476     -2.41548264510542     -2.59425929317568
  C   5.41924809290763      0.71019138597210     -3.34590620183598
  H   6.45818583421778      0.47924637907626     -3.62522828277654
  H   5.32310086799490      1.80426863196192     -3.28920310439935
  H   4.76503174616923      0.35569431060642     -4.15565189186949
  C   5.99409743748222      0.59272096570976     -0.31505514416541
  H   5.82918482576285      0.04252349423601      0.62078702180360
  H   5.76831202250677      1.65238152675960     -0.13290627014121
  H   7.06216787996440      0.51099459479900     -0.57053103772608
  C   2.60590919927911      1.85790710974283      0.08100915453256
  C   1.95474108322341      2.27044072886197      1.25646112387142
  H   1.42705586806728      1.53673480439989      1.85996064935433
  C   1.94844013275521      3.61237202579426      1.63825567234175
  H   1.43687858248743      3.90772591199341      2.55575447390846
  C   2.58879827111220      4.57384158290153      0.85173988139183
  H   2.58313684558266      5.62312473349348      1.14996756291483
  C   3.23425743134739      4.17642123958508     -0.32023572440338
  H   3.73405610771422      4.91538990150984     -0.94843761421544
  C   3.23944487743683      2.83177483333478     -0.69973306552000
  H   3.72435055906372      2.53173805788026     -1.62675930177921
  C   2.88051036173183     -0.63806579373874      0.64563636998032
  C   2.69830349756996     -1.99569563595249      0.33049948627160
  H   2.30368168791024     -2.27882428803464     -0.64571135838330
  C   3.02151564208308     -2.99953410946166      1.24156450265804
  H   2.84421173194076     -4.04164510645007      0.97506824962659
  C   3.55698418338130     -2.66635273188080      2.48897994929247
  H   3.80564127757447     -3.44852825847127      3.20736445496606
  C   3.77950413649332     -1.32492776026458      2.80129535857787
  H   4.21467666113044     -1.05068444212882      3.76346056076682
  C   3.44523428755700     -0.32168287858156      1.88679987664541
  H   3.63337310347500      0.71911608090528      2.14477728279510
  C   -3.74036619434297     -1.80651584155936      0.59204341006422
  C   -4.73500572837500     -1.84406660130615      1.74337582947285
  H   -5.75272196882739     -1.67586281461533      1.36672717057524
  H   -4.70700856504386     -2.82658350206295      2.23525274742018
  H   -4.50905424964302     -1.06925338531606      2.48833595457109
  C   -1.03363196817579     -1.25586591307662      3.20456004330679
  H   -0.51314686253177     -2.22931562169763      3.15150556944467
  C   -0.02029659033545     -0.20408627337097      3.66709964822643
  H   0.85727031870434     -0.17757399990736      3.00722804947113
  H   0.33707784713691     -0.42252450146139      4.68366205418891
  H   -0.47459333945264      0.79961834446388      3.67710726476007
  C   -2.18926825811240     -1.38938816446433      4.19870802633291
  H   -2.89222766792002     -2.17962319609392      3.90238109773956
  H   -2.75223708698522     -0.44532949765561      4.27625928332158
  H   -1.81309952539849     -1.63541100208737      5.20226948983872
  H   -3.78816782753685     -0.80444429135612      0.11602312786254
  O   -4.06864080154333     -2.81798251410331     -0.36385060631321
  Si  -4.71549337941218     -2.53631925462189     -1.88267467336293
  C   -4.84346557138437     -4.26837228252072     -2.64564753752078
  C   -3.59038793300805     -1.41357695208818     -2.89496502420664
  H   -3.42230635412359     -0.44901316672757     -2.39063503107146
  H   -2.61137677766364     -1.87641788444577     -3.08552167579731
  H   -4.05299041304428     -1.18714096324064     -3.86729929720484
  C   -6.39155130193135     -1.69595322649929     -1.71255105429811
  H   -6.85924286244380     -1.53670708431705     -2.69553385610035
  H   -7.08155768956668     -2.29363170386482     -1.10056584060020
  H   -6.28812362959672     -0.70835165869740     -1.23749252787004
  C   -3.45502132004435     -4.93374001717452     -2.62012605068497
  H   -3.07708464243091     -5.03673851566079     -1.59363550041665
  H   -3.51213640204814     -5.94362169444290     -3.06168760225373
  H   -2.71000135875763     -4.36461728452727     -3.19494399870752
  C   -5.34047484627806     -4.15953300864513     -4.09831922259724
  H   -5.43339137511655     -5.16500571169270     -4.54341164354400
  H   -6.33010493414414     -3.68110804857091     -4.16173796903793
  H   -4.64428291370627     -3.58602787817030     -4.72842498458970
  C   -5.83088766355410     -5.11747202017779     -1.82444737464079
  H   -5.51882235246217     -5.19177730761333     -0.77281019705602
  H   -6.84941931048443     -4.70140034647651     -1.84997189762915
  H   -5.88221894247915     -6.14096492987438     -2.23422018861146
