23
cs_40.pdb
N          2.34200      -18.81300       -3.80200
O          2.71600      -19.98200       -3.78000
O          1.47200      -18.41900       -4.57200
C          2.94400      -17.86100       -2.88400
C          2.70700      -16.39500       -3.21700
C          3.65800      -18.30000       -1.82200
N          4.27700      -17.54600       -0.83100
C          3.64500      -16.49700       -0.04400
C          5.70600      -17.30100       -0.80500
C          4.58700      -15.28600       -0.10000
C          5.83700      -15.78100       -0.83600
H          2.73100      -16.23400       -4.29500
H          1.73300      -16.08100       -2.84400
H          3.47400      -15.75900       -2.78000
H          3.78700      -19.36200       -1.66000
H          3.52500      -16.84500        0.98300
H          2.65200      -16.24900       -0.42000
H          6.22100      -17.76900       -1.64600
H          6.12300      -17.71100        0.11600
H          4.83200      -14.95400        0.91000
H          4.13100      -14.44400       -0.62200
H          5.81800      -15.43400       -1.86900
H          6.76500      -15.43200       -0.38300
