29
cs_60_jv.pdb
C         -2.53300        0.86900        0.55500
H         -3.07800        1.15900        1.46000
C         -1.12100        0.47000        0.87600
C          1.54500       -0.86800        0.13500
C          2.18700        1.35700       -0.56300
H          1.87500       -1.23100        1.11400
C          2.68300       -0.94700       -0.88500
C          3.37300        0.41000       -0.72700
H          2.44500        2.27300       -0.02800
H          3.34600       -1.79500       -0.70900
H          0.66600       -1.44300       -0.16700
H          3.98600        0.41800        0.17800
H          4.00500        0.67900       -1.57400
H          1.78000        1.63700       -1.54600
H          2.26900       -1.03600       -1.89300
C         -0.92400       -0.54400        1.97200
C         -3.32100       -0.28900       -0.07400
H         -3.39900       -1.14700        0.59000
N         -2.56200       -0.76400       -1.27500
H         -4.30000        0.02700       -0.43200
O         -2.54900       -0.03200       -2.24000
O         -1.96300       -1.81200       -1.18400
H          0.07900       -0.46300        2.39300
H         -1.06200       -1.57500        1.62600
H         -1.64400       -0.37000        2.77800
C         -0.11400        0.97100        0.14300
H         -0.32600        1.76500       -0.57400
N          1.21000        0.56800        0.19200
H         -2.55200        1.71300       -0.13800
